%chk=C:\Github\Cheminformatics\structures\SN2_TS.chk
# opt=(calcfc,ts,noeigen) freq b3lyp/6-31g(d,2p) geom=connectivity

SN2 TS optimization

-1 1
 H                  4.34612189   -0.42829056   -0.16283065
 H                  2.38112189    0.70620272   -0.16283065
 H                  2.38112189   -1.56278384   -0.16283065
 C                  3.03612189   -0.42829056   -0.16283065
 Cl                 3.03612189   -0.42829056    2.03716935
 Br                 3.03612189   -0.42829056   -2.56283065

 1 4 1.0
 2 4 1.0
 3 4 1.0
 4 5 0.5 6 0.5
 5
 6

